# LS-DYNA test Python script to take input, calculate some necessary values and produce strain hardening

